Version,8.8;
LifeCycleCost:Parameters,{7129fbcc-43c5-40a1-ae94-28015a6b87a3},EndOfYear,ConstantDollar,0.03,,,,2011,,2011,25,,None;
LifeCycleCost:UsePriceEscalation,U.S. Avg  Commercial-Electricity,Electricity,2011,January,0.9838,0.9730,0.9632,0.9611,0.9571,0.9553,0.9539,0.9521,0.9546,0.9550,0.9553,0.9564,0.9575,0.9596,0.9618,0.9614,0.9618,0.9618,0.9593,0.9589,0.9607,0.9625,0.9650,0.9708,0.9751,0.9762,0.9766,0.9766,0.9769,0.9773;
LifeCycleCost:UsePriceEscalation,U.S. Avg  Commercial-Distillate Oil,FuelOil#1,2011,January,0.9714,0.9730,0.9942,1.0164,1.0541,1.0928,1.1267,1.1580,1.1792,1.1967,1.2200,1.2333,1.2566,1.2709,1.2826,1.2985,1.3102,1.3250,1.3261,1.3282,1.3324,1.3356,1.3431,1.3510,1.3568,1.3606,1.3637,1.3674,1.3706,1.3743;
LifeCycleCost:UsePriceEscalation,U.S. Avg  Commercial-Residual Oil,FuelOil#2,2011,January,0.8469,0.8257,0.8681,0.8988,0.9289,0.9604,0.9897,1.0075,1.0314,1.0554,1.0861,1.1278,1.1497,1.1620,1.1743,1.1852,1.1948,1.2037,1.2071,1.2119,1.2139,1.2194,1.2276,1.2365,1.2420,1.2461,1.2509,1.2550,1.2591,1.2638;
LifeCycleCost:UsePriceEscalation,U.S. Avg  Commercial-Natural gas,NaturalGas,2011,January,0.9823,0.9557,0.9279,0.9257,0.9346,0.9412,0.9512,0.9645,0.9856,1.0067,1.0222,1.0410,1.0610,1.0787,1.0942,1.1098,1.1220,1.1308,1.1386,1.1486,1.1619,1.1763,1.1918,1.2118,1.2284,1.2439,1.2605,1.2772,1.2938,1.3115;
LifeCycleCost:UsePriceEscalation,U.S. Avg  Commercial-Coal,Coal,2011,January,0.9970,1.0089,1.0089,0.9941,0.9941,1.0000,1.0030,1.0059,1.0089,1.0119,1.0148,1.0178,1.0208,1.0267,1.0297,1.0356,1.0415,1.0534,1.0564,1.0593,1.0653,1.0712,1.0742,1.0801,1.0831,1.0831,1.0861,1.0890,1.0920,1.0950;
Building,90.1-2004-FullServiceRestaurant-ASHRAE 169-2006-1A created: 2019-07-12 00:19:44 -0400,0,City,0.04,0.2,FullInteriorAndExterior,25,6;
Zone,attic ZN,0,0,0,3.0488,,,,,,,,No;
BuildingSurface:Detailed,attic-floor-dinning,Floor,Typical Interior Floor,attic ZN,Surface,Dining_Ceiling,NoSun,NoWind,,,22.6087,16.4427,0,22.6087,0,0,0,0,0,0,16.4427,0;
BuildingSurface:Detailed,attic-floor-kitchen,Floor,Typical Interior Floor,attic ZN,Surface,Kitchen_Ceiling,NoSun,NoWind,,,22.6087,22.6087,0,22.6087,16.4427,0,0,16.4427,0,0,22.6087,0;
BuildingSurface:Detailed,east-roof,Roof,Typical Wood Joist Attic Floor R-29.41,attic ZN,Outdoors,,SunExposed,WindExposed,,,11.3044,3.769,3.7692,22.6087,0,0,22.6087,22.6087,0,11.3044,18.8397,3.7692;
BuildingSurface:Detailed,north-roof,Roof,Typical Wood Joist Attic Floor R-29.41,attic ZN,Outdoors,,SunExposed,WindExposed,,,11.3044,18.8397,3.7692,22.6087,22.6087,0,0,22.6087,0;
BuildingSurface:Detailed,south-roof,Roof,Typical Wood Joist Attic Floor R-29.41,attic ZN,Outdoors,,SunExposed,WindExposed,,,11.3044,3.769,3.7692,-1.73917179908584e-34,-6.74580236774689e-17,6.7454444242911e-17,22.6087,-9.66039263974126e-17,9.65988004329428e-17;
BuildingSurface:Detailed,west-roof,Roof,Typical Wood Joist Attic Floor R-29.41,attic ZN,Outdoors,,SunExposed,WindExposed,,,11.3044,18.8397,3.7692,-1.57308521999447e-16,22.6087,4.71792013183315e-16,-1.1417329679585e-16,-2.17720723655857e-33,3.42422958797359e-16,11.3044,3.769,3.7692;
ZoneInfiltration:DesignFlowRate,Space Infiltration Design Flow Rate 2,attic ZN,Always On,Flow/Zone,0.30914,,,,,,,;
Zone,Dining ZN,0,0,0,0,,,,,,,,Yes;
BuildingSurface:Detailed,Dining_Ceiling,Ceiling,Typical Interior Ceiling,Dining ZN,Surface,attic-floor-dinning,NoSun,NoWind,,,22.6087,0,3.0488,22.6087,16.4427,3.0488,0,16.4427,3.0488,0,0,3.0488;
BuildingSurface:Detailed,Dining_Floor,Floor,Typical Insulated Carpeted 6in Slab Floor,Dining ZN,Ground,,NoSun,NoWind,,,22.6087,16.4427,0,22.6087,0,0,0,0,0,0,16.4427,0;
BuildingSurface:Detailed,Dining_Wall_East,Wall,Typical Insulated Steel Framed Exterior Wall R-8.06,Dining ZN,Outdoors,,SunExposed,WindExposed,,,22.6087,0,3.0488,22.6087,0,0,22.6087,16.4427,0,22.6087,16.4427,3.0488;
FenestrationSurface:Detailed,Dining_Wall_East_Window,Window,U 1.22 SHGC 0.25 Sgl Elec Ref Colored 6mm,Dining_Wall_East,,,,,1,,22.6087,0.6029,1.9817,22.6087,0.6029,1.0671,22.6087,15.8398,1.0671,22.6087,15.8398,1.9817;
BuildingSurface:Detailed,Dining_Wall_North,Wall,Typical Interior Wall,Dining ZN,Surface,Dining_Wall_North-PPAutoCreateOther,NoSun,NoWind,,,22.6087,16.4427,3.0488,22.6087,16.4427,0,0,16.4427,0,0,16.4427,3.0488;
BuildingSurface:Detailed,Dining_Wall_South,Wall,Typical Insulated Steel Framed Exterior Wall R-8.06,Dining ZN,Outdoors,,SunExposed,WindExposed,,,0,0,3.0488,0,0,0,22.6087,0,0,22.6087,0,3.0488;
FenestrationSurface:Detailed,Dining_Wall_South_Window,Window,U 1.22 SHGC 0.25 Sgl Elec Ref Colored 6mm,Dining_Wall_South,,,,,1,,0.754,0,1.9817,0.754,0,1.0671,21.855,0,1.0671,21.855,0,1.9817;
BuildingSurface:Detailed,Dining_Wall_West,Wall,Typical Insulated Steel Framed Exterior Wall R-8.06,Dining ZN,Outdoors,,SunExposed,WindExposed,,,0,16.4427,3.0488,0,16.4427,0,0,0,0,0,0,3.0488;
FenestrationSurface:Detailed,Dining_Wall_West_Window,Window,U 1.22 SHGC 0.25 Sgl Elec Ref Colored 6mm,Dining_Wall_West,,,,,1,,0,15.8398,1.9817,0,15.8398,1.0671,0,0.6029,1.0671,0,0.6029,1.9817;
InternalMass,Dining Mass,InteriorFurnishings,Dining ZN,743.49614298;
InternalMass,Dining Mass 1,InteriorFurnishings,Dining ZN,743.49614298;
ZoneInfiltration:DesignFlowRate,Dining door Infiltration,Dining ZN,RestaurantSitDown DOOR_INFIL_SCH,Flow/Zone,0.7988174922000001,,,,,,,;
ZoneInfiltration:DesignFlowRate,Dining Infiltration,Dining ZN,RestaurantSitDown INFIL_HALF_ON_SCH,Flow/ExteriorArea,,,0.001332801731679249,,0,0,0.224,0;
ZoneControl:Thermostat,Dining ZN Thermostat,Dining ZN,Dining ZN Thermostat Schedule,ThermostatSetpoint:DualSetpoint,FullServiceRestaurant Dining Thermostat 1;
Schedule:Compact,Dining ZN Thermostat Schedule,Dining ZN Thermostat Schedule Type Limits,Through: 12/31,For: AllDays,Until: 24:00,4;
ScheduleTypeLimits,Dining ZN Thermostat Schedule Type Limits,0,4,DISCRETE;
ThermostatSetpoint:DualSetpoint,FullServiceRestaurant Dining Thermostat 1,RestaurantSitDown HTGSETP_SCH_NO_OPTIMUM,RestaurantSitDown CLGSETP_SCH_NO_SETBACK;
ScheduleTypeLimits,Temperature,,,Continuous,temperature;
Schedule:Day:Interval,RestaurantSitDown HTGSETP_SCH_NO_OPTIMUM Default,Temperature,No,04:00,11.155555555555555,24:00,16.555555555555557;
Schedule:Day:Interval,RestaurantSitDown HTGSETP_SCH_NO_OPTIMUM Default|Sat|Wkdy Day,Temperature,No,04:00,11.155555555555555,24:00,16.555555555555557;
Schedule:Week:Daily,Schedule:Week:Daily {cc2ac945-956e-4500-b1e9-811be27edbb8},RestaurantSitDown HTGSETP_SCH_NO_OPTIMUM Default,RestaurantSitDown HTGSETP_SCH_NO_OPTIMUM Default|Sat|Wkdy Day,RestaurantSitDown HTGSETP_SCH_NO_OPTIMUM Default|Sat|Wkdy Day,RestaurantSitDown HTGSETP_SCH_NO_OPTIMUM Default|Sat|Wkdy Day,RestaurantSitDown HTGSETP_SCH_NO_OPTIMUM Default|Sat|Wkdy Day,RestaurantSitDown HTGSETP_SCH_NO_OPTIMUM Default|Sat|Wkdy Day,RestaurantSitDown HTGSETP_SCH_NO_OPTIMUM Default|Sat|Wkdy Day,RestaurantSitDown HTGSETP_SCH_NO_OPTIMUM Default,RestaurantSitDown HTGSETP_SCH_NO_OPTIMUM Summer Design Day,RestaurantSitDown HTGSETP_SCH_NO_OPTIMUM Winter Design Day,RestaurantSitDown HTGSETP_SCH_NO_OPTIMUM Default,RestaurantSitDown HTGSETP_SCH_NO_OPTIMUM Default;
Schedule:Year,RestaurantSitDown HTGSETP_SCH_NO_OPTIMUM,Temperature,Schedule:Week:Daily {cc2ac945-956e-4500-b1e9-811be27edbb8},1,1,12,31;
Schedule:Day:Interval,RestaurantSitDown HTGSETP_SCH_NO_OPTIMUM Summer Design Day,Temperature,No,24:00,11.155555555555555;
Schedule:Day:Interval,RestaurantSitDown HTGSETP_SCH_NO_OPTIMUM Winter Design Day,Temperature,No,24:00,16.555555555555557;
Schedule:Day:Interval,RestaurantSitDown CLGSETP_SCH_NO_SETBACK Default,Temperature,No,24:00,28.444444444444443;
Schedule:Day:Interval,RestaurantSitDown CLGSETP_SCH_NO_SETBACK Default|Sat|Wkdy Day,Temperature,No,24:00,28.444444444444443;
Schedule:Week:Daily,Schedule:Week:Daily {363b5361-cd63-420a-a496-21bc9e2f3a2f},RestaurantSitDown CLGSETP_SCH_NO_SETBACK Default,RestaurantSitDown CLGSETP_SCH_NO_SETBACK Default|Sat|Wkdy Day,RestaurantSitDown CLGSETP_SCH_NO_SETBACK Default|Sat|Wkdy Day,RestaurantSitDown CLGSETP_SCH_NO_SETBACK Default|Sat|Wkdy Day,RestaurantSitDown CLGSETP_SCH_NO_SETBACK Default|Sat|Wkdy Day,RestaurantSitDown CLGSETP_SCH_NO_SETBACK Default|Sat|Wkdy Day,RestaurantSitDown CLGSETP_SCH_NO_SETBACK Default|Sat|Wkdy Day,RestaurantSitDown CLGSETP_SCH_NO_SETBACK Default,RestaurantSitDown CLGSETP_SCH_NO_SETBACK Summer Design Day,RestaurantSitDown CLGSETP_SCH_NO_SETBACK Winter Design Day,RestaurantSitDown CLGSETP_SCH_NO_SETBACK Default,RestaurantSitDown CLGSETP_SCH_NO_SETBACK Default;
Schedule:Year,RestaurantSitDown CLGSETP_SCH_NO_SETBACK,Temperature,Schedule:Week:Daily {363b5361-cd63-420a-a496-21bc9e2f3a2f},1,1,12,31;
Schedule:Day:Interval,RestaurantSitDown CLGSETP_SCH_NO_SETBACK Summer Design Day,Temperature,No,05:00,34.44444444444444,06:00,30.444444444444443,24:00,28.444444444444443;
Schedule:Day:Interval,RestaurantSitDown CLGSETP_SCH_NO_SETBACK Winter Design Day,Temperature,No,24:00,34.44444444444444;
ZoneHVAC:EquipmentConnections,Dining ZN,Dining ZN Equipment List,Dining ZN Inlet Node List,Dining ZN Exhaust Node List,Node 2,Node 15;
NodeList,Dining ZN Inlet Node List,Node 8;
NodeList,Dining ZN Exhaust Node List,Node 28;
AirTerminal:SingleDuct:Uncontrolled,Dining ZN PSZ-AC Diffuser,Always On Discrete,Node 8,AutoSize;
Fan:ZoneExhaust,Dining ZN Exhaust Fan,RestaurantSitDown HVACOperationSchd,1,0,2.644,Node 28,Node 29,General,,Decoupled;
ScheduleTypeLimits,OnOff,0,1,Discrete,availability;
Schedule:Day:Interval,RestaurantSitDown HVACOperationSchd Default|WntrDsn|SmrDsn|Sun|Wkdy Day,OnOff,No,01:00,1,05:00,0,24:00,1;
Schedule:Day:Interval,RestaurantSitDown HVACOperationSchd Default,OnOff,No,01:00,1,05:00,0,24:00,1;
Schedule:Week:Daily,Schedule:Week:Daily {74bf394a-e83d-49c3-8b7d-784504d0eb75},RestaurantSitDown HVACOperationSchd Default|WntrDsn|SmrDsn|Sun|Wkdy Day,RestaurantSitDown HVACOperationSchd Default|WntrDsn|SmrDsn|Sun|Wkdy Day,RestaurantSitDown HVACOperationSchd Default|WntrDsn|SmrDsn|Sun|Wkdy Day,RestaurantSitDown HVACOperationSchd Default|WntrDsn|SmrDsn|Sun|Wkdy Day,RestaurantSitDown HVACOperationSchd Default|WntrDsn|SmrDsn|Sun|Wkdy Day,RestaurantSitDown HVACOperationSchd Default|WntrDsn|SmrDsn|Sun|Wkdy Day,RestaurantSitDown HVACOperationSchd Default,RestaurantSitDown HVACOperationSchd Default,RestaurantSitDown HVACOperationSchd Summer Design Day,RestaurantSitDown HVACOperationSchd Winter Design Day,RestaurantSitDown HVACOperationSchd Default,RestaurantSitDown HVACOperationSchd Default;
Schedule:Year,RestaurantSitDown HVACOperationSchd,OnOff,Schedule:Week:Daily {74bf394a-e83d-49c3-8b7d-784504d0eb75},1,1,12,31;
Schedule:Day:Interval,RestaurantSitDown HVACOperationSchd Summer Design Day,OnOff,No,01:00,1,05:00,0,24:00,1;
Schedule:Day:Interval,RestaurantSitDown HVACOperationSchd Winter Design Day,OnOff,No,01:00,1,05:00,0,24:00,1;
ZoneHVAC:EquipmentList,Dining ZN Equipment List,AirTerminal:SingleDuct:Uncontrolled,Dining ZN PSZ-AC Diffuser,1,1,Fan:ZoneExhaust,Dining ZN Exhaust Fan,2,2;
Sizing:Zone,Dining ZN,SupplyAirTemperature,14.080000000000002,12.221,SupplyAirTemperature,44.0,12.221,0.00935,0.0088,FullServiceRestaurant Dining Ventilation,,,DesignDayWithLimit,0,0.0078227094,0,0,DesignDay,0,0.0022352,0.15573382000000002,0.33,Dining ZN Design Spec Zone Air Dist,No;
DesignSpecification:ZoneAirDistribution,Dining ZN Design Spec Zone Air Dist,1,1;
Schedule:Constant,Always On Discrete,OnOff,1;
Controller:MechanicalVentilation,Controller Mechanical Ventilation 1,Always On Discrete,No,ZoneSum,,Dining ZN,FullServiceRestaurant Dining Ventilation,Dining ZN Design Spec Zone Air Dist;
DesignSpecification:OutdoorAir,FullServiceRestaurant Dining Ventilation,Sum,0.009438948864,0,0,0;
Zone,Kitchen ZN,0,0,0,0,,,,,,,,Yes;
BuildingSurface:Detailed,Dining_Wall_North-PPAutoCreateOther,Wall,Typical Interior Wall,Kitchen ZN,Surface,Dining_Wall_North,NoSun,NoWind,,,0,16.4427,3.0488,0,16.4427,0,22.6087,16.4427,0,22.6087,16.4427,3.0488;
BuildingSurface:Detailed,Kitchen_Ceiling,Ceiling,Typical Interior Ceiling,Kitchen ZN,Surface,attic-floor-kitchen,NoSun,NoWind,,,22.6087,16.4427,3.0488,22.6087,22.6087,3.0488,0,22.6087,3.0488,0,16.4427,3.0488;
BuildingSurface:Detailed,Kitchen_Floor,Floor,Typical Insulated Carpeted 6in Slab Floor,Kitchen ZN,Ground,,NoSun,NoWind,,,22.6087,22.6087,0,22.6087,16.4427,0,0,16.4427,0,0,22.6087,0;
BuildingSurface:Detailed,Kitchen_Wall_East,Wall,Typical Insulated Steel Framed Exterior Wall R-8.06,Kitchen ZN,Outdoors,,SunExposed,WindExposed,,,22.6087,16.4427,3.0488,22.6087,16.4427,0,22.6087,22.6087,0,22.6087,22.6087,3.0488;
BuildingSurface:Detailed,Kitchen_Wall_North,Wall,Typical Insulated Steel Framed Exterior Wall R-8.06,Kitchen ZN,Outdoors,,SunExposed,WindExposed,,,22.6087,22.6087,3.0488,22.6087,22.6087,0,0,22.6087,0,0,22.6087,3.0488;
BuildingSurface:Detailed,Kitchen_Wall_West,Wall,Typical Insulated Steel Framed Exterior Wall R-8.06,Kitchen ZN,Outdoors,,SunExposed,WindExposed,,,0,22.6087,3.0488,0,22.6087,0,0,16.4427,0,0,16.4427,3.0488;
InternalMass,Kitchen Mass,InteriorFurnishings,Kitchen ZN,278.8104884;
InternalMass,Kitchen Mass 1,InteriorFurnishings,Kitchen ZN,278.8104884;
InternalMass,Kitchen Mass 2,InteriorFurnishings,Kitchen ZN,278.8104884;
InternalMass,Kitchen Mass 3,InteriorFurnishings,Kitchen ZN,278.8104884;
ZoneInfiltration:DesignFlowRate,Kitchen Infiltration,Kitchen ZN,RestaurantSitDown INFIL_HALF_ON_SCH,Flow/ExteriorArea,,,0.001332801731679249,,0,0,0.224,0;
ZoneMixing,Zone Mixing 1,Kitchen ZN,RestaurantSitDown Hours_of_operation,Flow/Zone,2.64397817,,,,Dining ZN,0;
ScheduleTypeLimits,Dimensionless,0,1,Continuous,dimensionless;
Schedule:Day:Interval,RestaurantSitDown Hours_of_operation Default|WntrDsn|SmrDsn|Sun|Wkdy Day,Dimensionless,No,01:00,1,05:00,0,24:00,1;
Schedule:Day:Interval,RestaurantSitDown Hours_of_operation Default,Dimensionless,No,01:00,1,05:00,0,24:00,1;
Schedule:Week:Daily,Schedule:Week:Daily {24c51dc4-fe53-4d1a-9ad9-5db44627690e},RestaurantSitDown Hours_of_operation Default|WntrDsn|SmrDsn|Sun|Wkdy Day,RestaurantSitDown Hours_of_operation Default|WntrDsn|SmrDsn|Sun|Wkdy Day,RestaurantSitDown Hours_of_operation Default|WntrDsn|SmrDsn|Sun|Wkdy Day,RestaurantSitDown Hours_of_operation Default|WntrDsn|SmrDsn|Sun|Wkdy Day,RestaurantSitDown Hours_of_operation Default|WntrDsn|SmrDsn|Sun|Wkdy Day,RestaurantSitDown Hours_of_operation Default|WntrDsn|SmrDsn|Sun|Wkdy Day,RestaurantSitDown Hours_of_operation Default,RestaurantSitDown Hours_of_operation Default,RestaurantSitDown Hours_of_operation Summer Design Day,RestaurantSitDown Hours_of_operation Winter Design Day,RestaurantSitDown Hours_of_operation Default,RestaurantSitDown Hours_of_operation Default;
Schedule:Year,RestaurantSitDown Hours_of_operation,Dimensionless,Schedule:Week:Daily {24c51dc4-fe53-4d1a-9ad9-5db44627690e},1,1,12,31;
Schedule:Day:Interval,RestaurantSitDown Hours_of_operation Summer Design Day,Dimensionless,No,01:00,1,05:00,0,24:00,1;
Schedule:Day:Interval,RestaurantSitDown Hours_of_operation Winter Design Day,Dimensionless,No,01:00,1,05:00,0,24:00,1;
ZoneControl:Thermostat,Kitchen ZN Thermostat,Kitchen ZN,Kitchen ZN Thermostat Schedule,ThermostatSetpoint:DualSetpoint,FullServiceRestaurant Kitchen Thermostat 1;
Schedule:Compact,Kitchen ZN Thermostat Schedule,Kitchen ZN Thermostat Schedule Type Limits,Through: 12/31,For: AllDays,Until: 24:00,4;
ScheduleTypeLimits,Kitchen ZN Thermostat Schedule Type Limits,0,4,DISCRETE;
ThermostatSetpoint:DualSetpoint,FullServiceRestaurant Kitchen Thermostat 1,RestaurantSitDown HTGSETP_KITCHEN_SCH_NO_OPTIMUM,RestaurantSitDown CLGSETP_KITCHEN_SCH_NO_SETBACK;
Schedule:Day:Interval,RestaurantSitDown HTGSETP_KITCHEN_SCH_NO_OPTIMUM Default,Temperature,No,01:00,14.555555555555555,04:00,11.155555555555555,24:00,14.555555555555555;
Schedule:Day:Interval,RestaurantSitDown HTGSETP_KITCHEN_SCH_NO_OPTIMUM Default|Sat|Wkdy Day,Temperature,No,01:00,14.555555555555555,04:00,11.155555555555555,24:00,14.555555555555555;
Schedule:Week:Daily,Schedule:Week:Daily {36a6a191-4422-4c57-a7fd-3580b04117d6},RestaurantSitDown HTGSETP_KITCHEN_SCH_NO_OPTIMUM Default,RestaurantSitDown HTGSETP_KITCHEN_SCH_NO_OPTIMUM Default|Sat|Wkdy Day,RestaurantSitDown HTGSETP_KITCHEN_SCH_NO_OPTIMUM Default|Sat|Wkdy Day,RestaurantSitDown HTGSETP_KITCHEN_SCH_NO_OPTIMUM Default|Sat|Wkdy Day,RestaurantSitDown HTGSETP_KITCHEN_SCH_NO_OPTIMUM Default|Sat|Wkdy Day,RestaurantSitDown HTGSETP_KITCHEN_SCH_NO_OPTIMUM Default|Sat|Wkdy Day,RestaurantSitDown HTGSETP_KITCHEN_SCH_NO_OPTIMUM Default|Sat|Wkdy Day,RestaurantSitDown HTGSETP_KITCHEN_SCH_NO_OPTIMUM Default,RestaurantSitDown HTGSETP_KITCHEN_SCH_NO_OPTIMUM Summer Design Day,RestaurantSitDown HTGSETP_KITCHEN_SCH_NO_OPTIMUM Winter Design Day,RestaurantSitDown HTGSETP_KITCHEN_SCH_NO_OPTIMUM Default,RestaurantSitDown HTGSETP_KITCHEN_SCH_NO_OPTIMUM Default;
Schedule:Year,RestaurantSitDown HTGSETP_KITCHEN_SCH_NO_OPTIMUM,Temperature,Schedule:Week:Daily {36a6a191-4422-4c57-a7fd-3580b04117d6},1,1,12,31;
Schedule:Day:Interval,RestaurantSitDown HTGSETP_KITCHEN_SCH_NO_OPTIMUM Summer Design Day,Temperature,No,24:00,11.155555555555555;
Schedule:Day:Interval,RestaurantSitDown HTGSETP_KITCHEN_SCH_NO_OPTIMUM Winter Design Day,Temperature,No,24:00,14.555555555555555;
Schedule:Day:Interval,RestaurantSitDown CLGSETP_KITCHEN_SCH_NO_SETBACK Default,Temperature,No,24:00,30.444444444444443;
Schedule:Day:Interval,RestaurantSitDown CLGSETP_KITCHEN_SCH_NO_SETBACK Default|Sat|Wkdy Day,Temperature,No,24:00,30.444444444444443;
Schedule:Week:Daily,Schedule:Week:Daily {a27cedbc-32f6-4ab8-a40f-4a0b57ccaec1},RestaurantSitDown CLGSETP_KITCHEN_SCH_NO_SETBACK Default,RestaurantSitDown CLGSETP_KITCHEN_SCH_NO_SETBACK Default|Sat|Wkdy Day,RestaurantSitDown CLGSETP_KITCHEN_SCH_NO_SETBACK Default|Sat|Wkdy Day,RestaurantSitDown CLGSETP_KITCHEN_SCH_NO_SETBACK Default|Sat|Wkdy Day,RestaurantSitDown CLGSETP_KITCHEN_SCH_NO_SETBACK Default|Sat|Wkdy Day,RestaurantSitDown CLGSETP_KITCHEN_SCH_NO_SETBACK Default|Sat|Wkdy Day,RestaurantSitDown CLGSETP_KITCHEN_SCH_NO_SETBACK Default|Sat|Wkdy Day,RestaurantSitDown CLGSETP_KITCHEN_SCH_NO_SETBACK Default,RestaurantSitDown CLGSETP_KITCHEN_SCH_NO_SETBACK Summer Design Day,RestaurantSitDown CLGSETP_KITCHEN_SCH_NO_SETBACK Winter Design Day,RestaurantSitDown CLGSETP_KITCHEN_SCH_NO_SETBACK Default,RestaurantSitDown CLGSETP_KITCHEN_SCH_NO_SETBACK Default;
Schedule:Year,RestaurantSitDown CLGSETP_KITCHEN_SCH_NO_SETBACK,Temperature,Schedule:Week:Daily {a27cedbc-32f6-4ab8-a40f-4a0b57ccaec1},1,1,12,31;
Schedule:Day:Interval,RestaurantSitDown CLGSETP_KITCHEN_SCH_NO_SETBACK Summer Design Day,Temperature,No,01:00,30.444444444444443,05:00,34.44444444444444,06:00,32.44444444444444,24:00,30.444444444444443;
Schedule:Day:Interval,RestaurantSitDown CLGSETP_KITCHEN_SCH_NO_SETBACK Winter Design Day,Temperature,No,24:00,34.44444444444444;
ZoneHVAC:EquipmentConnections,Kitchen ZN,Kitchen ZN Equipment List,Kitchen ZN Inlet Node List,Kitchen ZN Exhaust Node List,Node 3,Node 27;
NodeList,Kitchen ZN Inlet Node List,Node 20;
NodeList,Kitchen ZN Exhaust Node List,Node 30;
AirTerminal:SingleDuct:Uncontrolled,Kitchen ZN PSZ-AC Diffuser,Always On Discrete,Node 20,AutoSize;
Fan:ZoneExhaust,Kitchen ZN Exhaust Fan,RestaurantSitDown HVACOperationSchd,0.0660785714285714,124.544455,2.83169,Node 30,Node 31,General,,Decoupled;
ZoneHVAC:EquipmentList,Kitchen ZN Equipment List,AirTerminal:SingleDuct:Uncontrolled,Kitchen ZN PSZ-AC Diffuser,1,1,Fan:ZoneExhaust,Kitchen ZN Exhaust Fan,2,2;
Sizing:Zone,Kitchen ZN,SupplyAirTemperature,14.080000000000002,12.221,SupplyAirTemperature,44.0,12.221,0.00935,0.0088,FullServiceRestaurant Kitchen Ventilation,,,DesignDayWithLimit,0,0.0,0,0,DesignDay,0,0.0022352,0.15573382000000002,0.33,Kitchen ZN Design Spec Zone Air Dist,No;
DesignSpecification:ZoneAirDistribution,Kitchen ZN Design Spec Zone Air Dist,1,1;
Controller:MechanicalVentilation,Controller Mechanical Ventilation 2,Always On Discrete,No,ZoneSum,,Kitchen ZN,FullServiceRestaurant Kitchen Ventilation,Kitchen ZN Design Spec Zone Air Dist;
DesignSpecification:OutdoorAir,FullServiceRestaurant Kitchen Ventilation,Sum,0,0,1.87711831,0;
SimulationControl,Yes,Yes,Yes,No,Yes;
ConvergenceLimits,1,20;
HeatBalanceAlgorithm,ConductionTransferFunction,200;
RunPeriod,Run Period 1,1,1,12,31,Sunday,No,No,No,Yes,Yes,1;
ShadowCalculation,AverageOverDaysInFrequency,7,15000;
SurfaceConvectionAlgorithm:Inside,TARP;
SurfaceConvectionAlgorithm:Outside,TARP;
Timestep,6;
Sizing:Parameters,1.56,1.56;
GlobalGeometryRules,UpperLeftCorner,Counterclockwise,Relative,Relative,Relative;
Material,100mm Normalweight concrete floor,MediumSmooth,0.13208,3.003,3018.6,1081.6000000000001,0.99999,0.9099999999999999,0.9099999999999999;
Material,25mm Stucco,Smooth,0.03302,0.9359999999999987,2412.799999999987,1091.9999999999961,0.99999,0.9099999999999999,0.9099999999999999;
Material,4 in. Normalweight Concrete Floor,MediumRough,0.13208,3.003,3018.599999999987,1081.5999999999963,0.99999,0.9099999999999999,0.9099999999999999;
Material,5/8 in. Gypsum Board,MediumSmooth,0.02067,0.2079999999999987,1039.9999999999986,1417.0,0.99999,0.9099999999999999,0.9099999999999999;
Material,6 in. Normalweight Concrete Floor,MediumRough,0.19812000000000002,3.003,3018.599999999987,1081.5999999999963,0.99999,0.9099999999999999,0.9099999999999999;
Material,8 in. Concrete Block Basement Wall,MediumRough,0.26416,1.7238000000000002,2394.599999999987,1185.5999999999988,0.99999,0.9099999999999999,0.9099999999999999;
Material,F08 Metal surface,Smooth,0.0010400000000000001,58.86400000000013,10171.199999999988,650.0,0.99999,0.9099999999999999,0.9099999999999999;
Material,G01 13mm gypsum board,Smooth,0.01651,0.20800000000000002,1040.0,1417.0,0.99999,0.9099999999999999,0.65;
Material,G05 25mm wood,MediumSmooth,0.03302,0.195,790.4,2119.0,0.99999,0.65,0.65;
Material,M10 200mm concrete block basement wall,MediumRough,0.26416,1.7238000000000002,2394.6,1185.6000000000001,0.99999,0.9099999999999999,0.9099999999999999;
Material,Std Wood 6inch,MediumSmooth,0.195,0.156,702.0,1573.0,0.99999,0.9099999999999999,0.9099999999999999;
Material:NoMass,CP02 CARPET PAD,VeryRough,0.281424,0.99999,0.9099999999999999,1;
Material:NoMass,Nonres_Floor_Insulation,MediumSmooth,3.747795678863509,0.99999,0.9099999999999999,0.9099999999999999;
Material:NoMass,Typical Carpet Pad,Smooth,0.28142398309385885,0.99999,0.9099999999999999,1;
Material:NoMass,Typical Insulation,Smooth,0.03668888888888873,0.99999,0.9099999999999999,0.9099999999999999;
Material:NoMass,Typical Insulation R-0.54,Smooth,0.12285424461541349,0.99999,0.9099999999999999,0.9099999999999999;
Material:NoMass,Typical Insulation R-0.58,Smooth,0.13243704852888252,0.99999,0.9099999999999999,0.9099999999999999;
Material:NoMass,Typical Insulation R-27.78,Smooth,6.3594679047037195,0.99999,0.9099999999999999,0.9099999999999999;
Material:NoMass,Typical Insulation R-5.89,Smooth,1.3474785777505651,0.99999,0.9099999999999999,0.9099999999999999;
WindowMaterial:Glazing,Clear 3mm,SpectralAverage,,0.0038999999999999872,0.9111526195899773,0.08883738041002279,0.08883738041002279,0.9047226997195332,0.09526730028046686,0.09526730028046686,0,0.99999,0.99999,1.1700000000000002,1,No;
WindowMaterial:Glazing,ECREF-1 COLORED 6MM,SpectralAverage,,0.0077999999999999745,0.1287,0.2847,0.2847,0.2015,0.0949,0.0949,0,0.99999,0.99999,1.1700000000000002,1,No;
WindowMaterial:Glazing,REF B CLEAR HI 6MM,SpectralAverage,,0.0077999999999999745,0.312,0.20800000000000002,0.41600000000000004,0.39,0.20800000000000002,0.377,0,0.99999,0.78,1.1700000000000002,1,No;
Construction,Basement Floor construction,M10 200mm concrete block basement wall,CP02 CARPET PAD;
Construction,Basement Wall construction,M10 200mm concrete block basement wall;
Construction,Floor Adiabatic construction,CP02 CARPET PAD,100mm Normalweight concrete floor,Nonres_Floor_Insulation;
Construction,InteriorFurnishings,Std Wood 6inch;
Construction,Typical Insulated Basement Mass Wall,8 in. Concrete Block Basement Wall;
Construction,Typical Insulated Carpeted 6in Slab Floor,6 in. Normalweight Concrete Floor,Typical Carpet Pad;
Construction,Typical Insulated Exterior Mass Floor R-3.11,Typical Insulation R-0.54,4 in. Normalweight Concrete Floor,Typical Carpet Pad;
Construction,Typical Insulated Metal Door R-1.43,F08 Metal surface,Typical Insulation R-0.58;
Construction,Typical Insulated Steel Framed Exterior Wall R-8.06,25mm Stucco,5/8 in. Gypsum Board,Typical Insulation R-5.89,5/8 in. Gypsum Board;
Construction,Typical Interior Ceiling,CP02 CARPET PAD,100mm Normalweight concrete floor;
Construction,Typical Interior Door,G05 25mm wood;
Construction,Typical Interior Floor,100mm Normalweight concrete floor,CP02 CARPET PAD;
Construction,Typical Interior Partition,G05 25mm wood;
Construction,Typical Interior Wall,G01 13mm gypsum board,G01 13mm gypsum board;
Construction,Typical Interior Window,Clear 3mm;
Construction,Typical Overhead Door,Typical Insulation;
Construction,Typical Wood Joist Attic Floor R-29.41,5/8 in. Gypsum Board,Typical Insulation R-27.78;
Construction,U 1.22 SHGC 0.25 Sgl Elec Ref Colored 6mm,ECREF-1 COLORED 6MM;
Construction,U 1.98 SHGC 0.36 Sgl Ref-B-H Clr 6mm,REF B CLEAR HI 6MM;
Construction,Wall Adiabatic construction,G01 13mm gypsum board,G01 13mm gypsum board;
ScheduleTypeLimits,ActivityLevel,0,,Continuous,activitylevel;
ScheduleTypeLimits,Any Number;
ScheduleTypeLimits,Fractional,0,1,Continuous;
ScheduleTypeLimits,Fractional 1,0,1,Continuous;
ScheduleTypeLimits,LinearPowerDensity,0,,Continuous,linearpowerdensity;
ScheduleTypeLimits,OnOff 1,0,1,Discrete,availability;
ScheduleTypeLimits,Temperature Schedule Type Limits,0,100,Continuous,temperature;
ScheduleTypeLimits,Temperature Schedule Type Limits 1,0,100,Continuous,temperature;
ScheduleTypeLimits,Temperature Schedule Type Limits 2,0,100,Continuous,temperature;
ScheduleTypeLimits,Velocity,0,,Continuous,velocity;
Schedule:Constant,Always Off Discrete,OnOff 1,0;
Schedule:Constant,Always On Continuous,Fractional 1,1;
Schedule:Day:Interval,Air Velocity Schedule Default,Velocity,No,24:00,0.2;
Schedule:Day:Interval,Always On Default,Fractional,No,24:00,1;
Schedule:Day:Interval,Clothing Schedule Default Winter Clothes,Any Number,No,24:00,1;
Schedule:Day:Interval,Clothing Schedule Summer Clothes,Any Number,No,24:00,0.5;
Schedule:Day:Interval,Economizer Max OA Fraction 70 pct Default,,No,24:00,0.7;
Schedule:Day:Interval,Refrigeration Case Credit Schedule Default,Fractional,No,07:00,0.2,21:00,0.4,24:00,0.2;
Schedule:Day:Interval,Refrigeration Case Credit Schedule Default 1,,No,07:00,0.2,21:00,0.4,24:00,0.2;
Schedule:Day:Interval,Refrigeration Defrost DripDown Schedule Default,Fractional,No,11:00,0,11:30,1,23:00,0,23:30,1,24:00,0;
Schedule:Day:Interval,Refrigeration Defrost DripDown Schedule Default 1,,No,11:00,0,11:30,1,23:00,0,23:30,1,24:00,0;
Schedule:Day:Interval,Refrigeration Defrost Schedule Default,Fractional,No,11:00,0,11:20,1,23:00,0,23:20,1,24:00,0;
Schedule:Day:Interval,Refrigeration Defrost Schedule Default 1,Fractional,No,23:20,0,24:00,0;
Schedule:Day:Interval,RestaurantSitDown ACTIVITY_SCH Default,ActivityLevel,No,24:00,120;
Schedule:Day:Interval,RestaurantSitDown ACTIVITY_SCH Summer Design Day,ActivityLevel,No,24:00,120;
Schedule:Day:Interval,RestaurantSitDown ACTIVITY_SCH Winter Design Day,ActivityLevel,No,24:00,120;
Schedule:Day:Interval,RestaurantSitDown ALWAYS_ON Default,Fractional,No,24:00,1;
Schedule:Day:Interval,RestaurantSitDown ALWAYS_ON Summer Design Day,Fractional,No,24:00,1;
Schedule:Day:Interval,RestaurantSitDown ALWAYS_ON Winter Design Day,Fractional,No,24:00,1;
Schedule:Day:Interval,RestaurantSitDown BLDG_EQUIP_SCH Default,Fractional,No,01:00,0.03,02:00,0.02,03:00,0.03,04:00,0.02,05:00,0.05,06:00,0.12,07:00,0.13,08:00,0.15,09:00,0.18,10:00,0.21,11:00,0.26,12:00,0.29,13:00,0.27,14:00,0.25,16:00,0.23,18:00,0.26,19:00,0.24,20:00,0.22,21:00,0.2,22:00,0.18,23:00,0.09,24:00,0.03;
Schedule:Day:Interval,RestaurantSitDown BLDG_EQUIP_SCH Default|Sat|Wkdy Day,Fractional,No,01:00,0.03,02:00,0.02,03:00,0.03,04:00,0.02,05:00,0.05,06:00,0.12,07:00,0.13,08:00,0.15,09:00,0.18,10:00,0.21,11:00,0.26,12:00,0.29,13:00,0.27,14:00,0.25,16:00,0.23,18:00,0.26,19:00,0.24,20:00,0.22,21:00,0.2,22:00,0.18,23:00,0.09,24:00,0.03;
Schedule:Day:Interval,RestaurantSitDown BLDG_EQUIP_SCH Summer Design Day,Fractional,No,24:00,0.29;
Schedule:Day:Interval,RestaurantSitDown BLDG_EQUIP_SCH Winter Design Day,Fractional,No,24:00,0;
Schedule:Day:Interval,RestaurantSitDown BLDG_LIGHT_KITCHEN_SCH_2004_2007 Default,Fractional,No,01:00,0.2,06:00,0.15,08:00,0.3,10:00,0.5,16:00,0.7,22:00,0.6,23:00,0.5,24:00,0.3;
Schedule:Day:Interval,RestaurantSitDown BLDG_LIGHT_KITCHEN_SCH_2004_2007 Sat Day,Fractional,No,01:00,0.2,06:00,0.15,08:00,0.3,10:00,0.6,17:00,0.8,22:00,0.9,23:00,0.5,24:00,0.3;
Schedule:Day:Interval,RestaurantSitDown BLDG_LIGHT_KITCHEN_SCH_2004_2007 Summer Design Day,Fractional,No,24:00,1;
Schedule:Day:Interval,RestaurantSitDown BLDG_LIGHT_KITCHEN_SCH_2004_2007 Winter Design Day,Fractional,No,24:00,0;
Schedule:Day:Interval,RestaurantSitDown BLDG_LIGHT_KITCHEN_SCH_2004_2007 Wkdy Day,Fractional,No,05:00,0.15,06:00,0.2,08:00,0.4,10:00,0.6,22:00,0.9,23:00,0.5,24:00,0.3;
Schedule:Day:Interval,RestaurantSitDown BLDG_OCC_SCH Default,Fractional,No,01:00,0.05,06:00,0,07:00,0.05,09:00,0.5,11:00,0.2,12:00,0.3,14:00,0.5,15:00,0.3,16:00,0.2,17:00,0.25,18:00,0.35,19:00,0.55,20:00,0.65,21:00,0.7,22:00,0.35,24:00,0.2;
Schedule:Day:Interval,RestaurantSitDown BLDG_OCC_SCH Sat Day,Fractional,No,01:00,0.05,06:00,0,07:00,0.05,09:00,0.5,10:00,0.4,11:00,0.2,12:00,0.45,14:00,0.5,15:00,0.35,18:00,0.3,19:00,0.7,20:00,0.9,21:00,0.7,22:00,0.65,23:00,0.55,24:00,0.35;
Schedule:Day:Interval,RestaurantSitDown BLDG_OCC_SCH Summer Design Day,Fractional,No,24:00,1;
Schedule:Day:Interval,RestaurantSitDown BLDG_OCC_SCH Winter Design Day,Fractional,No,24:00,0;
Schedule:Day:Interval,RestaurantSitDown BLDG_OCC_SCH Wkdy Day,Fractional,No,01:00,0.05,05:00,0,06:00,0.05,07:00,0.1,10:00,0.4,11:00,0.2,12:00,0.5,13:00,0.8,14:00,0.7,15:00,0.4,16:00,0.2,17:00,0.25,18:00,0.5,21:00,0.8,22:00,0.5,23:00,0.35,24:00,0.2;